15
Atom	X	Y	Z
C	2.5094340	-0.2180930	-0.3063240
C	1.4325470	0.3434670	0.2722150
C	0.0757090	-0.3135480	0.4381710
C	-1.0678330	0.4506400	-0.2839370
C	-2.4549450	-0.1985710	-0.0808680
H	3.4600860	0.3155420	-0.4025830
H	2.4844750	-1.2380230	-0.7063220
H	1.5082430	1.3707840	0.6562040
H	0.1199610	-1.3532120	0.0666780
H	-0.1711510	-0.3749950	1.5166820
H	-1.0933670	1.4949550	0.0786160
H	-0.8355390	0.5060030	-1.3623970
H	-3.2438300	0.3652300	-0.6063040
H	-2.4720120	-1.2332750	-0.4644910
H	-2.7263350	-0.2363760	0.9883690