10
Atom	X	Y	Z
N	0.0000000	0.0000000	1.1337670
H	0.0000000	0.0000000	2.1491690
C	0.0000000	1.1334800	0.3339100
C	0.0000000	-1.1334800	0.3339100
C	0.0000000	0.7200320	-0.9921390
C	0.0000000	-0.7200320	-0.9921390
H	0.0000000	2.1297840	0.7714100
H	0.0000000	-2.1297840	0.7714100
H	0.0000000	1.3709270	-1.8648060
H	0.0000000	-1.3709270	-1.8648060