12
Atom	X	Y	Z
C	0.0000000	1.4067150	0.0000000
C	1.2182510	0.7033580	0.0000000
C	1.2182510	-0.7033580	0.0000000
C	0.0000000	-1.4067150	0.0000000
C	-1.2182510	-0.7033580	0.0000000
C	-1.2182510	0.7033580	0.0000000
H	0.0000000	2.5010480	0.0000000
H	2.1659710	1.2505240	0.0000000
H	2.1659710	-1.2505240	0.0000000
H	0.0000000	-2.5010480	0.0000000
H	-2.1659710	-1.2505240	0.0000000
H	-2.1659710	1.2505240	0.0000000