11
Atom	X	Y	Z
C	1.1646160	1.4705980	0.0000000
C	0.0000000	0.5052820	0.0000000
O	-1.1871590	0.8092560	0.0000000
O	0.4674550	-0.7891170	0.0000000
C	-0.5404250	-1.8151950	0.0000000
H	0.7871420	2.5020440	0.0000000
H	1.7992720	1.3149290	0.8882660
H	1.7992720	1.3149290	-0.8882660
H	-0.0081780	-2.7776220	0.0000000
H	-1.1825100	-1.7397530	0.8928860
H	-1.1825100	-1.7397530	-0.8928860