10
Atom	X	Y	Z
N	0.0263600	0.5824520	0.0000000
H	-0.7836040	1.2093660	0.0000000
C	0.0263600	-0.2222220	1.2267740
C	0.0263600	-0.2222220	-1.2267740
H	-0.8103030	-0.9563320	1.3060470
H	-0.8103030	-0.9563320	-1.3060470
H	0.9686300	-0.7943990	1.2891760
H	0.9686300	-0.7943990	-1.2891760
H	-0.0169420	0.4407970	2.1065540
H	-0.0169420	0.4407970	-2.1065540