9
Atom	X	Y	Z
H	2.1243330	0.7318710	0.0000000
C	1.1219080	0.3080100	0.0000000
H	1.2752800	-1.9138160	0.0000000
C	0.6718980	-1.0095420	0.0000000
H	-1.4930020	-1.6975170	0.0000000
C	-0.7544600	-0.8961520	0.0000000
N	-1.1562780	0.3818970	0.0000000
H	-0.0487410	2.1122080	0.0000000
N	0.0000000	1.0971540	0.0000000