11
Atom	X	Y	Z
C	0.0000000	0.0000000	0.5892360
C	0.0000000	1.2876330	-0.2613270
C	0.0000000	-1.2876330	-0.2613270
H	0.8835780	0.0000000	1.2547400
H	-0.8835780	0.0000000	1.2547400
H	0.0000000	2.1914170	0.3719870
H	0.0000000	-2.1914170	0.3719870
H	0.8904500	1.3349040	-0.9132350
H	-0.8904500	1.3349040	-0.9132350
H	-0.8904500	-1.3349040	-0.9132350
H	0.8904500	-1.3349040	-0.9132350