13
Atom	X	Y	Z
N	0.0000000	0.0000000	0.3695290
C	0.0000000	1.4022170	-0.0605980
C	1.2143550	-0.7011080	-0.0605980
C	-1.2143550	-0.7011080	-0.0605980
H	0.0000000	1.5286590	-1.1716950
H	1.3238580	-0.7643300	-1.1716950
H	-1.3238580	-0.7643300	-1.1716950
H	-0.8925240	1.9150210	0.3365230
H	0.8925240	1.9150210	0.3365230
H	2.1047190	-0.1845620	0.3365230
H	1.2121950	-1.7304590	0.3365230
H	-1.2121950	-1.7304590	0.3365230
H	-2.1047190	-0.1845620	0.3365230