10
Atom	X	Y	Z
C	-0.3399620	0.6435320	0.0000000
C	0.3399620	-0.6435320	0.0000000
C	0.3399620	1.8279870	0.0000000
C	-0.3399620	-1.8279870	0.0000000
H	-1.4173440	0.6538990	0.0000000
H	1.4173440	-0.6538990	0.0000000
H	-0.1889570	2.7683800	0.0000000
H	1.4208910	1.8376130	0.0000000
H	0.1889570	-2.7683800	0.0000000
H	-1.4208910	-1.8376130	0.0000000