12
Atom	X	Y	Z
F	0.0000000	0.0000000	2.3022870
C	0.0000000	0.0000000	0.9440750
C	0.0000000	1.2265520	0.2616940
C	0.0000000	-1.2265520	0.2616940
C	0.0000000	1.2180280	-1.1457830
C	0.0000000	-1.2180280	-1.1457830
C	0.0000000	0.0000000	-1.8525040
H	0.0000000	2.1585260	0.8315140
H	0.0000000	-2.1585260	0.8315140
H	0.0000000	2.1675200	-1.6890850
H	0.0000000	-2.1675200	-1.6890850
H	0.0000000	0.0000000	-2.9457910